<routes>
	<vType id="Car" accel="0.00001" decel="2.0" length="3" cfmodel="IDM"/>
	<route id="rou0" edges="in out" />

	<vehicle route="rou0" type="Car" id="veh1" depart="14" departSpeed="12" maxSpeed="12"/>
	<vehicle route="rou0" type="Car" id="veh2" depart="22" departSpeed="13" maxSpeed="13"/>
	<vehicle route="rou0" type="Car" id="veh3" depart="45" departSpeed="13" maxSpeed="13"/>
	<vehicle route="rou0" type="Car" id="veh4" depart="59" departSpeed="11" maxSpeed="11"/>
	<vehicle route="rou0" type="Car" id="veh5" depart="83" departSpeed="11" maxSpeed="11"/>
	<vehicle route="rou0" type="Car" id="veh6" depart="88" departSpeed="8" maxSpeed="8"/>
	<vehicle route="rou0" type="Car" id="veh7" depart="99" departSpeed="10" maxSpeed="10"/>
	<vehicle route="rou0" type="Car" id="veh8" depart="104" departSpeed="12" maxSpeed="12"/>
	<vehicle route="rou0" type="Car" id="veh9" depart="123" departSpeed="10" maxSpeed="10"/>
	<vehicle route="rou0" type="Car" id="veh10" depart="143" departSpeed="10" maxSpeed="10"/>
</routes>
