<routes>
	<vType id="Car" accel="0.00001" decel="2.0" length="3" cfmodel="IDM"/>
	<route id="rou0" edges="in" />

	<vehicle route="rou0" type="Car" id="veh1" depart="12" departSpeed="8" maxSpeed="8"/>
	<vehicle route="rou0" type="Car" id="veh2" depart="22" departSpeed="8" maxSpeed="8"/>
	<vehicle route="rou0" type="Car" id="veh3" depart="42" departSpeed="8" maxSpeed="8"/>
	<vehicle route="rou0" type="Car" id="veh4" depart="53" departSpeed="9" maxSpeed="9"/>
	<vehicle route="rou0" type="Car" id="veh5" depart="59" departSpeed="8" maxSpeed="8"/>
	<vehicle route="rou0" type="Car" id="veh6" depart="72" departSpeed="11" maxSpeed="11"/>
	<vehicle route="rou0" type="Car" id="veh7" depart="96" departSpeed="11" maxSpeed="11"/>
	<vehicle route="rou0" type="Car" id="veh8" depart="107" departSpeed="13" maxSpeed="13"/>
	<vehicle route="rou0" type="Car" id="veh9" depart="118" departSpeed="8" maxSpeed="8"/>
	<vehicle route="rou0" type="Car" id="veh10" depart="126" departSpeed="8" maxSpeed="8"/>
</routes>
