<routes>
	<vType id="Car" accel="0.00001" decel="2.0" length="3" cfmodel="IDM"/>
	<route id="rou0" edges="in" />

	<vehicle route="rou0" type="Car" id="veh1" depart="17" departSpeed="11" maxSpeed="11"/>
	<vehicle route="rou0" type="Car" id="veh2" depart="37" departSpeed="13" maxSpeed="13"/>
	<vehicle route="rou0" type="Car" id="veh3" depart="56" departSpeed="9" maxSpeed="9"/>
	<vehicle route="rou0" type="Car" id="veh4" depart="75" departSpeed="10" maxSpeed="10"/>
	<vehicle route="rou0" type="Car" id="veh5" depart="87" departSpeed="10" maxSpeed="10"/>
	<vehicle route="rou0" type="Car" id="veh6" depart="95" departSpeed="12" maxSpeed="12"/>
	<vehicle route="rou0" type="Car" id="veh7" depart="111" departSpeed="8" maxSpeed="8"/>
	<vehicle route="rou0" type="Car" id="veh8" depart="119" departSpeed="8" maxSpeed="8"/>
	<vehicle route="rou0" type="Car" id="veh9" depart="138" departSpeed="11" maxSpeed="11"/>
	<vehicle route="rou0" type="Car" id="veh10" depart="146" departSpeed="11" maxSpeed="11"/>
</routes>
