<routes>
	<vType id="Car" accel="0.00001" decel="2.0" length="3" cfmodel="IDM"/>
	<route id="rou0" edges="in" />

	<vehicle route="rou0" type="Car" id="veh1" depart="36" departSpeed="13" maxSpeed="13"/>
	<vehicle route="rou0" type="Car" id="veh2" depart="51" departSpeed="2" maxSpeed="2"/>
	<vehicle route="rou0" type="Car" id="veh3" depart="82" departSpeed="6" maxSpeed="6"/>
	<vehicle route="rou0" type="Car" id="veh4" depart="106" departSpeed="4" maxSpeed="4"/>
	<vehicle route="rou0" type="Car" id="veh5" depart="113" departSpeed="4" maxSpeed="4"/>
	<vehicle route="rou0" type="Car" id="veh6" depart="156" departSpeed="3" maxSpeed="3"/>
	<vehicle route="rou0" type="Car" id="veh7" depart="211" departSpeed="6" maxSpeed="6"/>
	<vehicle route="rou0" type="Car" id="veh8" depart="219" departSpeed="8" maxSpeed="8"/>
	<vehicle route="rou0" type="Car" id="veh9" depart="245" departSpeed="9" maxSpeed="9"/>
	<vehicle route="rou0" type="Car" id="veh10" depart="283" departSpeed="8" maxSpeed="8"/>
	<vehicle route="rou0" type="Car" id="veh11" depart="283" departSpeed="8" maxSpeed="8"/>
	<vehicle route="rou0" type="Car" id="veh12" depart="355" departSpeed="3" maxSpeed="3"/>
	<vehicle route="rou0" type="Car" id="veh13" depart="358" departSpeed="7" maxSpeed="7"/>
	<vehicle route="rou0" type="Car" id="veh14" depart="364" departSpeed="10" maxSpeed="10"/>
	<vehicle route="rou0" type="Car" id="veh15" depart="371" departSpeed="8" maxSpeed="8"/>
	<vehicle route="rou0" type="Car" id="veh16" depart="381" departSpeed="2" maxSpeed="2"/>
	<vehicle route="rou0" type="Car" id="veh17" depart="382" departSpeed="7" maxSpeed="7"/>
	<vehicle route="rou0" type="Car" id="veh18" depart="391" departSpeed="7" maxSpeed="7"/>
	<vehicle route="rou0" type="Car" id="veh19" depart="412" departSpeed="13" maxSpeed="13"/>
	<vehicle route="rou0" type="Car" id="veh20" depart="427" departSpeed="7" maxSpeed="7"/>
	<vehicle route="rou0" type="Car" id="veh21" depart="483" departSpeed="11" maxSpeed="11"/>
	<vehicle route="rou0" type="Car" id="veh22" depart="496" departSpeed="3" maxSpeed="3"/>
	<vehicle route="rou0" type="Car" id="veh23" depart="586" departSpeed="11" maxSpeed="11"/>
	<vehicle route="rou0" type="Car" id="veh24" depart="588" departSpeed="7" maxSpeed="7"/>
	<vehicle route="rou0" type="Car" id="veh25" depart="598" departSpeed="4" maxSpeed="4"/>
	<vehicle route="rou0" type="Car" id="veh26" depart="613" departSpeed="2" maxSpeed="2"/>
	<vehicle route="rou0" type="Car" id="veh27" depart="615" departSpeed="2" maxSpeed="2"/>
	<vehicle route="rou0" type="Car" id="veh28" depart="673" departSpeed="2" maxSpeed="2"/>
	<vehicle route="rou0" type="Car" id="veh29" depart="710" departSpeed="6" maxSpeed="6"/>
	<vehicle route="rou0" type="Car" id="veh30" depart="711" departSpeed="7" maxSpeed="7"/>
	<vehicle route="rou0" type="Car" id="veh31" depart="715" departSpeed="10" maxSpeed="10"/>
	<vehicle route="rou0" type="Car" id="veh32" depart="777" departSpeed="9" maxSpeed="9"/>
	<vehicle route="rou0" type="Car" id="veh33" depart="780" departSpeed="2" maxSpeed="2"/>
	<vehicle route="rou0" type="Car" id="veh34" depart="783" departSpeed="7" maxSpeed="7"/>
	<vehicle route="rou0" type="Car" id="veh35" depart="856" departSpeed="4" maxSpeed="4"/>
	<vehicle route="rou0" type="Car" id="veh36" depart="861" departSpeed="2" maxSpeed="2"/>
	<vehicle route="rou0" type="Car" id="veh37" depart="864" departSpeed="5" maxSpeed="5"/>
	<vehicle route="rou0" type="Car" id="veh38" depart="893" departSpeed="12" maxSpeed="12"/>
	<vehicle route="rou0" type="Car" id="veh39" depart="894" departSpeed="4" maxSpeed="4"/>
	<vehicle route="rou0" type="Car" id="veh40" depart="922" departSpeed="4" maxSpeed="4"/>
	<vehicle route="rou0" type="Car" id="veh41" depart="930" departSpeed="5" maxSpeed="5"/>
	<vehicle route="rou0" type="Car" id="veh42" depart="974" departSpeed="8" maxSpeed="8"/>
	<vehicle route="rou0" type="Car" id="veh43" depart="990" departSpeed="3" maxSpeed="3"/>
	<vehicle route="rou0" type="Car" id="veh44" depart="1029" departSpeed="7" maxSpeed="7"/>
	<vehicle route="rou0" type="Car" id="veh45" depart="1035" departSpeed="8" maxSpeed="8"/>
	<vehicle route="rou0" type="Car" id="veh46" depart="1118" departSpeed="2" maxSpeed="2"/>
	<vehicle route="rou0" type="Car" id="veh47" depart="1123" departSpeed="10" maxSpeed="10"/>
	<vehicle route="rou0" type="Car" id="veh48" depart="1138" departSpeed="3" maxSpeed="3"/>
	<vehicle route="rou0" type="Car" id="veh49" depart="1155" departSpeed="10" maxSpeed="10"/>
	<vehicle route="rou0" type="Car" id="veh50" depart="1160" departSpeed="13" maxSpeed="13"/>
	<vehicle route="rou0" type="Car" id="veh51" depart="1198" departSpeed="4" maxSpeed="4"/>
	<vehicle route="rou0" type="Car" id="veh52" depart="1214" departSpeed="9" maxSpeed="9"/>
	<vehicle route="rou0" type="Car" id="veh53" depart="1223" departSpeed="2" maxSpeed="2"/>
	<vehicle route="rou0" type="Car" id="veh54" depart="1224" departSpeed="8" maxSpeed="8"/>
	<vehicle route="rou0" type="Car" id="veh55" depart="1247" departSpeed="11" maxSpeed="11"/>
	<vehicle route="rou0" type="Car" id="veh56" depart="1257" departSpeed="10" maxSpeed="10"/>
	<vehicle route="rou0" type="Car" id="veh57" depart="1326" departSpeed="12" maxSpeed="12"/>
	<vehicle route="rou0" type="Car" id="veh58" depart="1399" departSpeed="13" maxSpeed="13"/>
	<vehicle route="rou0" type="Car" id="veh59" depart="1412" departSpeed="3" maxSpeed="3"/>
	<vehicle route="rou0" type="Car" id="veh60" depart="1431" departSpeed="6" maxSpeed="6"/>
	<vehicle route="rou0" type="Car" id="veh61" depart="1488" departSpeed="4" maxSpeed="4"/>
	<vehicle route="rou0" type="Car" id="veh62" depart="1493" departSpeed="9" maxSpeed="9"/>
	<vehicle route="rou0" type="Car" id="veh63" depart="1500" departSpeed="6" maxSpeed="6"/>
	<vehicle route="rou0" type="Car" id="veh64" depart="1567" departSpeed="7" maxSpeed="7"/>
	<vehicle route="rou0" type="Car" id="veh65" depart="1605" departSpeed="10" maxSpeed="10"/>
	<vehicle route="rou0" type="Car" id="veh66" depart="1611" departSpeed="11" maxSpeed="11"/>
	<vehicle route="rou0" type="Car" id="veh67" depart="1622" departSpeed="11" maxSpeed="11"/>
	<vehicle route="rou0" type="Car" id="veh68" depart="1653" departSpeed="9" maxSpeed="9"/>
	<vehicle route="rou0" type="Car" id="veh69" depart="1730" departSpeed="3" maxSpeed="3"/>
	<vehicle route="rou0" type="Car" id="veh70" depart="1806" departSpeed="11" maxSpeed="11"/>
	<vehicle route="rou0" type="Car" id="veh71" depart="1878" departSpeed="2" maxSpeed="2"/>
	<vehicle route="rou0" type="Car" id="veh72" depart="1904" departSpeed="13" maxSpeed="13"/>
	<vehicle route="rou0" type="Car" id="veh73" depart="1937" departSpeed="3" maxSpeed="3"/>
	<vehicle route="rou0" type="Car" id="veh74" depart="1943" departSpeed="3" maxSpeed="3"/>
	<vehicle route="rou0" type="Car" id="veh75" depart="1948" departSpeed="3" maxSpeed="3"/>
	<vehicle route="rou0" type="Car" id="veh76" depart="2026" departSpeed="4" maxSpeed="4"/>
	<vehicle route="rou0" type="Car" id="veh77" depart="2037" departSpeed="5" maxSpeed="5"/>
	<vehicle route="rou0" type="Car" id="veh78" depart="2048" departSpeed="2" maxSpeed="2"/>
	<vehicle route="rou0" type="Car" id="veh79" depart="2088" departSpeed="3" maxSpeed="3"/>
	<vehicle route="rou0" type="Car" id="veh80" depart="2092" departSpeed="13" maxSpeed="13"/>
	<vehicle route="rou0" type="Car" id="veh81" depart="2108" departSpeed="10" maxSpeed="10"/>
	<vehicle route="rou0" type="Car" id="veh82" depart="2118" departSpeed="4" maxSpeed="4"/>
	<vehicle route="rou0" type="Car" id="veh83" depart="2171" departSpeed="2" maxSpeed="2"/>
	<vehicle route="rou0" type="Car" id="veh84" depart="2176" departSpeed="2" maxSpeed="2"/>
	<vehicle route="rou0" type="Car" id="veh85" depart="2196" departSpeed="8" maxSpeed="8"/>
	<vehicle route="rou0" type="Car" id="veh86" depart="2242" departSpeed="5" maxSpeed="5"/>
	<vehicle route="rou0" type="Car" id="veh87" depart="2252" departSpeed="9" maxSpeed="9"/>
	<vehicle route="rou0" type="Car" id="veh88" depart="2270" departSpeed="10" maxSpeed="10"/>
	<vehicle route="rou0" type="Car" id="veh89" depart="2278" departSpeed="6" maxSpeed="6"/>
	<vehicle route="rou0" type="Car" id="veh90" depart="2301" departSpeed="3" maxSpeed="3"/>
	<vehicle route="rou0" type="Car" id="veh91" depart="2302" departSpeed="11" maxSpeed="11"/>
	<vehicle route="rou0" type="Car" id="veh92" depart="2368" departSpeed="10" maxSpeed="10"/>
	<vehicle route="rou0" type="Car" id="veh93" depart="2376" departSpeed="5" maxSpeed="5"/>
	<vehicle route="rou0" type="Car" id="veh94" depart="2418" departSpeed="11" maxSpeed="11"/>
	<vehicle route="rou0" type="Car" id="veh95" depart="2434" departSpeed="7" maxSpeed="7"/>
	<vehicle route="rou0" type="Car" id="veh96" depart="2439" departSpeed="6" maxSpeed="6"/>
	<vehicle route="rou0" type="Car" id="veh97" depart="2462" departSpeed="12" maxSpeed="12"/>
	<vehicle route="rou0" type="Car" id="veh98" depart="2469" departSpeed="3" maxSpeed="3"/>
	<vehicle route="rou0" type="Car" id="veh99" depart="2478" departSpeed="5" maxSpeed="5"/>
	<vehicle route="rou0" type="Car" id="veh100" depart="2485" departSpeed="12" maxSpeed="12"/>
	<vehicle route="rou0" type="Car" id="veh101" depart="2494" departSpeed="12" maxSpeed="12"/>
	<vehicle route="rou0" type="Car" id="veh102" depart="2521" departSpeed="11" maxSpeed="11"/>
	<vehicle route="rou0" type="Car" id="veh103" depart="2626" departSpeed="2" maxSpeed="2"/>
	<vehicle route="rou0" type="Car" id="veh104" depart="2646" departSpeed="10" maxSpeed="10"/>
	<vehicle route="rou0" type="Car" id="veh105" depart="2662" departSpeed="9" maxSpeed="9"/>
	<vehicle route="rou0" type="Car" id="veh106" depart="2723" departSpeed="10" maxSpeed="10"/>
	<vehicle route="rou0" type="Car" id="veh107" depart="2781" departSpeed="5" maxSpeed="5"/>
	<vehicle route="rou0" type="Car" id="veh108" depart="2823" departSpeed="6" maxSpeed="6"/>
	<vehicle route="rou0" type="Car" id="veh109" depart="2834" departSpeed="6" maxSpeed="6"/>
	<vehicle route="rou0" type="Car" id="veh110" depart="2878" departSpeed="3" maxSpeed="3"/>
	<vehicle route="rou0" type="Car" id="veh111" depart="2889" departSpeed="6" maxSpeed="6"/>
	<vehicle route="rou0" type="Car" id="veh112" depart="2916" departSpeed="5" maxSpeed="5"/>
	<vehicle route="rou0" type="Car" id="veh113" depart="2928" departSpeed="5" maxSpeed="5"/>
	<vehicle route="rou0" type="Car" id="veh114" depart="2969" departSpeed="6" maxSpeed="6"/>
	<vehicle route="rou0" type="Car" id="veh115" depart="2975" departSpeed="5" maxSpeed="5"/>
	<vehicle route="rou0" type="Car" id="veh116" depart="3020" departSpeed="13" maxSpeed="13"/>
	<vehicle route="rou0" type="Car" id="veh117" depart="3037" departSpeed="11" maxSpeed="11"/>
	<vehicle route="rou0" type="Car" id="veh118" depart="3052" departSpeed="7" maxSpeed="7"/>
	<vehicle route="rou0" type="Car" id="veh119" depart="3070" departSpeed="12" maxSpeed="12"/>
	<vehicle route="rou0" type="Car" id="veh120" depart="3131" departSpeed="10" maxSpeed="10"/>
	<vehicle route="rou0" type="Car" id="veh121" depart="3169" departSpeed="12" maxSpeed="12"/>
	<vehicle route="rou0" type="Car" id="veh122" depart="3182" departSpeed="10" maxSpeed="10"/>
	<vehicle route="rou0" type="Car" id="veh123" depart="3237" departSpeed="11" maxSpeed="11"/>
	<vehicle route="rou0" type="Car" id="veh124" depart="3250" departSpeed="7" maxSpeed="7"/>
	<vehicle route="rou0" type="Car" id="veh125" depart="3301" departSpeed="3" maxSpeed="3"/>
	<vehicle route="rou0" type="Car" id="veh126" depart="3322" departSpeed="13" maxSpeed="13"/>
	<vehicle route="rou0" type="Car" id="veh127" depart="3324" departSpeed="7" maxSpeed="7"/>
	<vehicle route="rou0" type="Car" id="veh128" depart="3378" departSpeed="12" maxSpeed="12"/>
	<vehicle route="rou0" type="Car" id="veh129" depart="3421" departSpeed="13" maxSpeed="13"/>
	<vehicle route="rou0" type="Car" id="veh130" depart="3490" departSpeed="13" maxSpeed="13"/>
	<vehicle route="rou0" type="Car" id="veh131" depart="3513" departSpeed="3" maxSpeed="3"/>
	<vehicle route="rou0" type="Car" id="veh132" depart="3526" departSpeed="10" maxSpeed="10"/>
	<vehicle route="rou0" type="Car" id="veh133" depart="3530" departSpeed="11" maxSpeed="11"/>
	<vehicle route="rou0" type="Car" id="veh134" depart="3538" departSpeed="9" maxSpeed="9"/>
	<vehicle route="rou0" type="Car" id="veh135" depart="3540" departSpeed="5" maxSpeed="5"/>
	<vehicle route="rou0" type="Car" id="veh136" depart="3546" departSpeed="3" maxSpeed="3"/>
	<vehicle route="rou0" type="Car" id="veh137" depart="3574" departSpeed="13" maxSpeed="13"/>
	<vehicle route="rou0" type="Car" id="veh138" depart="3581" departSpeed="13" maxSpeed="13"/>
	<vehicle route="rou0" type="Car" id="veh139" depart="3648" departSpeed="10" maxSpeed="10"/>
	<vehicle route="rou0" type="Car" id="veh140" depart="3696" departSpeed="12" maxSpeed="12"/>
	<vehicle route="rou0" type="Car" id="veh141" depart="3697" departSpeed="10" maxSpeed="10"/>
	<vehicle route="rou0" type="Car" id="veh142" depart="3709" departSpeed="13" maxSpeed="13"/>
	<vehicle route="rou0" type="Car" id="veh143" depart="3720" departSpeed="8" maxSpeed="8"/>
	<vehicle route="rou0" type="Car" id="veh144" depart="3763" departSpeed="7" maxSpeed="7"/>
	<vehicle route="rou0" type="Car" id="veh145" depart="3781" departSpeed="11" maxSpeed="11"/>
	<vehicle route="rou0" type="Car" id="veh146" depart="3787" departSpeed="5" maxSpeed="5"/>
	<vehicle route="rou0" type="Car" id="veh147" depart="3832" departSpeed="5" maxSpeed="5"/>
	<vehicle route="rou0" type="Car" id="veh148" depart="3837" departSpeed="9" maxSpeed="9"/>
	<vehicle route="rou0" type="Car" id="veh149" depart="3853" departSpeed="11" maxSpeed="11"/>
	<vehicle route="rou0" type="Car" id="veh150" depart="3856" departSpeed="9" maxSpeed="9"/>
	<vehicle route="rou0" type="Car" id="veh151" depart="3903" departSpeed="6" maxSpeed="6"/>
	<vehicle route="rou0" type="Car" id="veh152" depart="3979" departSpeed="11" maxSpeed="11"/>
	<vehicle route="rou0" type="Car" id="veh153" depart="3986" departSpeed="12" maxSpeed="12"/>
	<vehicle route="rou0" type="Car" id="veh154" depart="3995" departSpeed="11" maxSpeed="11"/>
	<vehicle route="rou0" type="Car" id="veh155" depart="4035" departSpeed="5" maxSpeed="5"/>
	<vehicle route="rou0" type="Car" id="veh156" depart="4036" departSpeed="10" maxSpeed="10"/>
	<vehicle route="rou0" type="Car" id="veh157" depart="4044" departSpeed="11" maxSpeed="11"/>
	<vehicle route="rou0" type="Car" id="veh158" depart="4071" departSpeed="9" maxSpeed="9"/>
	<vehicle route="rou0" type="Car" id="veh159" depart="4128" departSpeed="5" maxSpeed="5"/>
	<vehicle route="rou0" type="Car" id="veh160" depart="4134" departSpeed="2" maxSpeed="2"/>
	<vehicle route="rou0" type="Car" id="veh161" depart="4141" departSpeed="5" maxSpeed="5"/>
	<vehicle route="rou0" type="Car" id="veh162" depart="4142" departSpeed="11" maxSpeed="11"/>
	<vehicle route="rou0" type="Car" id="veh163" depart="4195" departSpeed="6" maxSpeed="6"/>
	<vehicle route="rou0" type="Car" id="veh164" depart="4232" departSpeed="8" maxSpeed="8"/>
	<vehicle route="rou0" type="Car" id="veh165" depart="4237" departSpeed="6" maxSpeed="6"/>
	<vehicle route="rou0" type="Car" id="veh166" depart="4259" departSpeed="9" maxSpeed="9"/>
	<vehicle route="rou0" type="Car" id="veh167" depart="4276" departSpeed="2" maxSpeed="2"/>
	<vehicle route="rou0" type="Car" id="veh168" depart="4283" departSpeed="7" maxSpeed="7"/>
	<vehicle route="rou0" type="Car" id="veh169" depart="4293" departSpeed="10" maxSpeed="10"/>
	<vehicle route="rou0" type="Car" id="veh170" depart="4365" departSpeed="2" maxSpeed="2"/>
	<vehicle route="rou0" type="Car" id="veh171" depart="4390" departSpeed="11" maxSpeed="11"/>
	<vehicle route="rou0" type="Car" id="veh172" depart="4403" departSpeed="13" maxSpeed="13"/>
	<vehicle route="rou0" type="Car" id="veh173" depart="4482" departSpeed="7" maxSpeed="7"/>
	<vehicle route="rou0" type="Car" id="veh174" depart="4485" departSpeed="11" maxSpeed="11"/>
	<vehicle route="rou0" type="Car" id="veh175" depart="4511" departSpeed="13" maxSpeed="13"/>
	<vehicle route="rou0" type="Car" id="veh176" depart="4543" departSpeed="13" maxSpeed="13"/>
	<vehicle route="rou0" type="Car" id="veh177" depart="4579" departSpeed="12" maxSpeed="12"/>
	<vehicle route="rou0" type="Car" id="veh178" depart="4593" departSpeed="3" maxSpeed="3"/>
	<vehicle route="rou0" type="Car" id="veh179" depart="4634" departSpeed="10" maxSpeed="10"/>
	<vehicle route="rou0" type="Car" id="veh180" depart="4726" departSpeed="12" maxSpeed="12"/>
	<vehicle route="rou0" type="Car" id="veh181" depart="4746" departSpeed="4" maxSpeed="4"/>
	<vehicle route="rou0" type="Car" id="veh182" depart="4785" departSpeed="2" maxSpeed="2"/>
	<vehicle route="rou0" type="Car" id="veh183" depart="4875" departSpeed="11" maxSpeed="11"/>
	<vehicle route="rou0" type="Car" id="veh184" depart="4915" departSpeed="2" maxSpeed="2"/>
	<vehicle route="rou0" type="Car" id="veh185" depart="4942" departSpeed="12" maxSpeed="12"/>
	<vehicle route="rou0" type="Car" id="veh186" depart="4983" departSpeed="3" maxSpeed="3"/>
	<vehicle route="rou0" type="Car" id="veh187" depart="4999" departSpeed="11" maxSpeed="11"/>
	<vehicle route="rou0" type="Car" id="veh188" depart="5085" departSpeed="4" maxSpeed="4"/>
	<vehicle route="rou0" type="Car" id="veh189" depart="5182" departSpeed="5" maxSpeed="5"/>
	<vehicle route="rou0" type="Car" id="veh190" depart="5193" departSpeed="6" maxSpeed="6"/>
	<vehicle route="rou0" type="Car" id="veh191" depart="5213" departSpeed="10" maxSpeed="10"/>
	<vehicle route="rou0" type="Car" id="veh192" depart="5230" departSpeed="7" maxSpeed="7"/>
	<vehicle route="rou0" type="Car" id="veh193" depart="5262" departSpeed="8" maxSpeed="8"/>
	<vehicle route="rou0" type="Car" id="veh194" depart="5343" departSpeed="4" maxSpeed="4"/>
	<vehicle route="rou0" type="Car" id="veh195" depart="5358" departSpeed="11" maxSpeed="11"/>
	<vehicle route="rou0" type="Car" id="veh196" depart="5382" departSpeed="5" maxSpeed="5"/>
	<vehicle route="rou0" type="Car" id="veh197" depart="5389" departSpeed="7" maxSpeed="7"/>
	<vehicle route="rou0" type="Car" id="veh198" depart="5400" departSpeed="12" maxSpeed="12"/>
	<vehicle route="rou0" type="Car" id="veh199" depart="5402" departSpeed="6" maxSpeed="6"/>
	<vehicle route="rou0" type="Car" id="veh200" depart="5422" departSpeed="11" maxSpeed="11"/>
	<vehicle route="rou0" type="Car" id="veh201" depart="5429" departSpeed="9" maxSpeed="9"/>
	<vehicle route="rou0" type="Car" id="veh202" depart="5446" departSpeed="8" maxSpeed="8"/>
	<vehicle route="rou0" type="Car" id="veh203" depart="5466" departSpeed="4" maxSpeed="4"/>
	<vehicle route="rou0" type="Car" id="veh204" depart="5488" departSpeed="5" maxSpeed="5"/>
	<vehicle route="rou0" type="Car" id="veh205" depart="5500" departSpeed="2" maxSpeed="2"/>
	<vehicle route="rou0" type="Car" id="veh206" depart="5501" departSpeed="9" maxSpeed="9"/>
	<vehicle route="rou0" type="Car" id="veh207" depart="5509" departSpeed="6" maxSpeed="6"/>
	<vehicle route="rou0" type="Car" id="veh208" depart="5516" departSpeed="8" maxSpeed="8"/>
	<vehicle route="rou0" type="Car" id="veh209" depart="5538" departSpeed="5" maxSpeed="5"/>
	<vehicle route="rou0" type="Car" id="veh210" depart="5542" departSpeed="9" maxSpeed="9"/>
	<vehicle route="rou0" type="Car" id="veh211" depart="5545" departSpeed="10" maxSpeed="10"/>
	<vehicle route="rou0" type="Car" id="veh212" depart="5593" departSpeed="5" maxSpeed="5"/>
	<vehicle route="rou0" type="Car" id="veh213" depart="5594" departSpeed="3" maxSpeed="3"/>
	<vehicle route="rou0" type="Car" id="veh214" depart="5630" departSpeed="11" maxSpeed="11"/>
	<vehicle route="rou0" type="Car" id="veh215" depart="5636" departSpeed="8" maxSpeed="8"/>
	<vehicle route="rou0" type="Car" id="veh216" depart="5651" departSpeed="11" maxSpeed="11"/>
	<vehicle route="rou0" type="Car" id="veh217" depart="5662" departSpeed="13" maxSpeed="13"/>
	<vehicle route="rou0" type="Car" id="veh218" depart="5683" departSpeed="6" maxSpeed="6"/>
	<vehicle route="rou0" type="Car" id="veh219" depart="5684" departSpeed="6" maxSpeed="6"/>
	<vehicle route="rou0" type="Car" id="veh220" depart="5686" departSpeed="10" maxSpeed="10"/>
	<vehicle route="rou0" type="Car" id="veh221" depart="5690" departSpeed="5" maxSpeed="5"/>
	<vehicle route="rou0" type="Car" id="veh222" depart="5695" departSpeed="7" maxSpeed="7"/>
	<vehicle route="rou0" type="Car" id="veh223" depart="5706" departSpeed="4" maxSpeed="4"/>
	<vehicle route="rou0" type="Car" id="veh224" depart="5709" departSpeed="2" maxSpeed="2"/>
	<vehicle route="rou0" type="Car" id="veh225" depart="5711" departSpeed="3" maxSpeed="3"/>
	<vehicle route="rou0" type="Car" id="veh226" depart="5731" departSpeed="13" maxSpeed="13"/>
	<vehicle route="rou0" type="Car" id="veh227" depart="5801" departSpeed="10" maxSpeed="10"/>
	<vehicle route="rou0" type="Car" id="veh228" depart="5815" departSpeed="3" maxSpeed="3"/>
	<vehicle route="rou0" type="Car" id="veh229" depart="5825" departSpeed="2" maxSpeed="2"/>
	<vehicle route="rou0" type="Car" id="veh230" depart="5930" departSpeed="5" maxSpeed="5"/>
	<vehicle route="rou0" type="Car" id="veh231" depart="5933" departSpeed="5" maxSpeed="5"/>
	<vehicle route="rou0" type="Car" id="veh232" depart="5968" departSpeed="6" maxSpeed="6"/>
	<vehicle route="rou0" type="Car" id="veh233" depart="5973" departSpeed="13" maxSpeed="13"/>
	<vehicle route="rou0" type="Car" id="veh234" depart="5993" departSpeed="7" maxSpeed="7"/>
	<vehicle route="rou0" type="Car" id="veh235" depart="5995" departSpeed="11" maxSpeed="11"/>
	<vehicle route="rou0" type="Car" id="veh236" depart="6012" departSpeed="9" maxSpeed="9"/>
	<vehicle route="rou0" type="Car" id="veh237" depart="6049" departSpeed="2" maxSpeed="2"/>
	<vehicle route="rou0" type="Car" id="veh238" depart="6052" departSpeed="9" maxSpeed="9"/>
	<vehicle route="rou0" type="Car" id="veh239" depart="6065" departSpeed="4" maxSpeed="4"/>
	<vehicle route="rou0" type="Car" id="veh240" depart="6073" departSpeed="2" maxSpeed="2"/>
	<vehicle route="rou0" type="Car" id="veh241" depart="6084" departSpeed="9" maxSpeed="9"/>
	<vehicle route="rou0" type="Car" id="veh242" depart="6153" departSpeed="3" maxSpeed="3"/>
	<vehicle route="rou0" type="Car" id="veh243" depart="6188" departSpeed="5" maxSpeed="5"/>
	<vehicle route="rou0" type="Car" id="veh244" depart="6226" departSpeed="5" maxSpeed="5"/>
	<vehicle route="rou0" type="Car" id="veh245" depart="6273" departSpeed="8" maxSpeed="8"/>
	<vehicle route="rou0" type="Car" id="veh246" depart="6295" departSpeed="13" maxSpeed="13"/>
	<vehicle route="rou0" type="Car" id="veh247" depart="6365" departSpeed="8" maxSpeed="8"/>
	<vehicle route="rou0" type="Car" id="veh248" depart="6413" departSpeed="7" maxSpeed="7"/>
	<vehicle route="rou0" type="Car" id="veh249" depart="6418" departSpeed="11" maxSpeed="11"/>
	<vehicle route="rou0" type="Car" id="veh250" depart="6455" departSpeed="7" maxSpeed="7"/>
	<vehicle route="rou0" type="Car" id="veh251" depart="6511" departSpeed="12" maxSpeed="12"/>
	<vehicle route="rou0" type="Car" id="veh252" depart="6512" departSpeed="13" maxSpeed="13"/>
	<vehicle route="rou0" type="Car" id="veh253" depart="6541" departSpeed="5" maxSpeed="5"/>
	<vehicle route="rou0" type="Car" id="veh254" depart="6585" departSpeed="13" maxSpeed="13"/>
	<vehicle route="rou0" type="Car" id="veh255" depart="6592" departSpeed="8" maxSpeed="8"/>
	<vehicle route="rou0" type="Car" id="veh256" depart="6594" departSpeed="4" maxSpeed="4"/>
	<vehicle route="rou0" type="Car" id="veh257" depart="6646" departSpeed="6" maxSpeed="6"/>
	<vehicle route="rou0" type="Car" id="veh258" depart="6650" departSpeed="3" maxSpeed="3"/>
	<vehicle route="rou0" type="Car" id="veh259" depart="6685" departSpeed="10" maxSpeed="10"/>
	<vehicle route="rou0" type="Car" id="veh260" depart="6745" departSpeed="6" maxSpeed="6"/>
	<vehicle route="rou0" type="Car" id="veh261" depart="6756" departSpeed="11" maxSpeed="11"/>
	<vehicle route="rou0" type="Car" id="veh262" depart="6866" departSpeed="8" maxSpeed="8"/>
	<vehicle route="rou0" type="Car" id="veh263" depart="6866" departSpeed="12" maxSpeed="12"/>
	<vehicle route="rou0" type="Car" id="veh264" depart="6894" departSpeed="10" maxSpeed="10"/>
	<vehicle route="rou0" type="Car" id="veh265" depart="6907" departSpeed="12" maxSpeed="12"/>
	<vehicle route="rou0" type="Car" id="veh266" depart="6927" departSpeed="4" maxSpeed="4"/>
	<vehicle route="rou0" type="Car" id="veh267" depart="6966" departSpeed="8" maxSpeed="8"/>
	<vehicle route="rou0" type="Car" id="veh268" depart="6999" departSpeed="5" maxSpeed="5"/>
	<vehicle route="rou0" type="Car" id="veh269" depart="7007" departSpeed="10" maxSpeed="10"/>
	<vehicle route="rou0" type="Car" id="veh270" depart="7016" departSpeed="13" maxSpeed="13"/>
	<vehicle route="rou0" type="Car" id="veh271" depart="7021" departSpeed="11" maxSpeed="11"/>
	<vehicle route="rou0" type="Car" id="veh272" depart="7091" departSpeed="11" maxSpeed="11"/>
	<vehicle route="rou0" type="Car" id="veh273" depart="7143" departSpeed="13" maxSpeed="13"/>
	<vehicle route="rou0" type="Car" id="veh274" depart="7153" departSpeed="3" maxSpeed="3"/>
	<vehicle route="rou0" type="Car" id="veh275" depart="7159" departSpeed="4" maxSpeed="4"/>
	<vehicle route="rou0" type="Car" id="veh276" depart="7173" departSpeed="5" maxSpeed="5"/>
	<vehicle route="rou0" type="Car" id="veh277" depart="7177" departSpeed="2" maxSpeed="2"/>
	<vehicle route="rou0" type="Car" id="veh278" depart="7189" departSpeed="2" maxSpeed="2"/>
	<vehicle route="rou0" type="Car" id="veh279" depart="7197" departSpeed="4" maxSpeed="4"/>
	<vehicle route="rou0" type="Car" id="veh280" depart="7272" departSpeed="5" maxSpeed="5"/>
	<vehicle route="rou0" type="Car" id="veh281" depart="7280" departSpeed="2" maxSpeed="2"/>
	<vehicle route="rou0" type="Car" id="veh282" depart="7302" departSpeed="6" maxSpeed="6"/>
	<vehicle route="rou0" type="Car" id="veh283" depart="7306" departSpeed="11" maxSpeed="11"/>
	<vehicle route="rou0" type="Car" id="veh284" depart="7315" departSpeed="3" maxSpeed="3"/>
	<vehicle route="rou0" type="Car" id="veh285" depart="7322" departSpeed="10" maxSpeed="10"/>
	<vehicle route="rou0" type="Car" id="veh286" depart="7377" departSpeed="12" maxSpeed="12"/>
	<vehicle route="rou0" type="Car" id="veh287" depart="7398" departSpeed="10" maxSpeed="10"/>
	<vehicle route="rou0" type="Car" id="veh288" depart="7400" departSpeed="2" maxSpeed="2"/>
	<vehicle route="rou0" type="Car" id="veh289" depart="7405" departSpeed="4" maxSpeed="4"/>
	<vehicle route="rou0" type="Car" id="veh290" depart="7454" departSpeed="4" maxSpeed="4"/>
	<vehicle route="rou0" type="Car" id="veh291" depart="7463" departSpeed="5" maxSpeed="5"/>
	<vehicle route="rou0" type="Car" id="veh292" depart="7506" departSpeed="9" maxSpeed="9"/>
	<vehicle route="rou0" type="Car" id="veh293" depart="7512" departSpeed="6" maxSpeed="6"/>
	<vehicle route="rou0" type="Car" id="veh294" depart="7537" departSpeed="7" maxSpeed="7"/>
	<vehicle route="rou0" type="Car" id="veh295" depart="7612" departSpeed="5" maxSpeed="5"/>
	<vehicle route="rou0" type="Car" id="veh296" depart="7678" departSpeed="12" maxSpeed="12"/>
	<vehicle route="rou0" type="Car" id="veh297" depart="7734" departSpeed="4" maxSpeed="4"/>
	<vehicle route="rou0" type="Car" id="veh298" depart="7740" departSpeed="12" maxSpeed="12"/>
	<vehicle route="rou0" type="Car" id="veh299" depart="7754" departSpeed="12" maxSpeed="12"/>
	<vehicle route="rou0" type="Car" id="veh300" depart="7770" departSpeed="10" maxSpeed="10"/>
	<vehicle route="rou0" type="Car" id="veh301" depart="7841" departSpeed="9" maxSpeed="9"/>
	<vehicle route="rou0" type="Car" id="veh302" depart="7844" departSpeed="11" maxSpeed="11"/>
	<vehicle route="rou0" type="Car" id="veh303" depart="7980" departSpeed="5" maxSpeed="5"/>
	<vehicle route="rou0" type="Car" id="veh304" depart="7998" departSpeed="7" maxSpeed="7"/>
	<vehicle route="rou0" type="Car" id="veh305" depart="8008" departSpeed="8" maxSpeed="8"/>
	<vehicle route="rou0" type="Car" id="veh306" depart="8014" departSpeed="6" maxSpeed="6"/>
	<vehicle route="rou0" type="Car" id="veh307" depart="8062" departSpeed="9" maxSpeed="9"/>
	<vehicle route="rou0" type="Car" id="veh308" depart="8113" departSpeed="2" maxSpeed="2"/>
	<vehicle route="rou0" type="Car" id="veh309" depart="8120" departSpeed="11" maxSpeed="11"/>
	<vehicle route="rou0" type="Car" id="veh310" depart="8122" departSpeed="5" maxSpeed="5"/>
	<vehicle route="rou0" type="Car" id="veh311" depart="8127" departSpeed="3" maxSpeed="3"/>
	<vehicle route="rou0" type="Car" id="veh312" depart="8136" departSpeed="12" maxSpeed="12"/>
	<vehicle route="rou0" type="Car" id="veh313" depart="8145" departSpeed="10" maxSpeed="10"/>
	<vehicle route="rou0" type="Car" id="veh314" depart="8177" departSpeed="9" maxSpeed="9"/>
	<vehicle route="rou0" type="Car" id="veh315" depart="8200" departSpeed="7" maxSpeed="7"/>
	<vehicle route="rou0" type="Car" id="veh316" depart="8209" departSpeed="9" maxSpeed="9"/>
	<vehicle route="rou0" type="Car" id="veh317" depart="8224" departSpeed="11" maxSpeed="11"/>
	<vehicle route="rou0" type="Car" id="veh318" depart="8236" departSpeed="10" maxSpeed="10"/>
	<vehicle route="rou0" type="Car" id="veh319" depart="8261" departSpeed="7" maxSpeed="7"/>
	<vehicle route="rou0" type="Car" id="veh320" depart="8338" departSpeed="10" maxSpeed="10"/>
	<vehicle route="rou0" type="Car" id="veh321" depart="8347" departSpeed="3" maxSpeed="3"/>
	<vehicle route="rou0" type="Car" id="veh322" depart="8355" departSpeed="13" maxSpeed="13"/>
	<vehicle route="rou0" type="Car" id="veh323" depart="8355" departSpeed="5" maxSpeed="5"/>
	<vehicle route="rou0" type="Car" id="veh324" depart="8357" departSpeed="3" maxSpeed="3"/>